@<TRIPOS>MOLECULE
[[5-(6-aminopurin-9-yl)-3,4-dihydroxy-tetrahydrofuran-2-yl]methoxy-oxido-phosphoryl] phosphate
   39    41     0     0     0
SMALL
NO_CHARGES

@<TRIPOS>ATOM
      1 P1        257.4160  -68.5530  107.6490 P.3       1 ADP1        0.0000
      2 O1        258.5450  -67.7760  107.1910 O.2       1 ADP1        0.0000
      3 O2        257.2090  -69.8800  106.8790 O.3       1 ADP1        0.0000
      4 O3        257.4220  -68.7560  109.2260 O.3       1 ADP1        0.0000
      5 P2        256.0770  -66.2040  106.6160 P.3       1 ADP1        0.0000
      6 O4        256.8420  -66.1230  105.3730 O.2       1 ADP1        0.0000
      7 O5        254.5510  -65.8600  106.4610 O.3       1 ADP1        0.0000
      8 O6        256.1620  -67.6430  107.2610 O.3       1 ADP1        0.0000
      9 N1        255.6660  -61.4360  107.1620 N.pl3     1 ADP1        0.0000
     10 C1        255.9460  -62.3020  106.1360 C.2       1 ADP1        0.0000
     11 N2        255.8110  -61.7340  104.8970 N.2       1 ADP1        0.0000
     12 C2        255.4180  -60.4640  105.1770 C.ar      1 ADP1        0.0000
     13 C3        255.1220  -59.3370  104.2790 C.ar      1 ADP1        0.0000
     14 N3        255.1510  -59.4000  102.9490 N.pl3     1 ADP1        0.0000
     15 N4        254.7620  -58.1530  104.9640 N.ar      1 ADP1        0.0000
     16 C4        254.7250  -58.0570  106.3640 C.ar      1 ADP1        0.0000
     17 N5        254.9920  -59.0700  107.1880 N.ar      1 ADP1        0.0000
     18 C5        255.3510  -60.2450  106.5740 C.ar      1 ADP1        0.0000
     19 C6        255.7100  -61.7160  108.5970 C.3       1 ADP1        0.0000
     20 C7        254.3370  -62.0800  109.1810 C.3       1 ADP1        0.0000
     21 O7        254.1480  -61.3990  110.4230 O.3       1 ADP1        0.0000
     22 C8        254.3720  -63.6200  109.2920 C.3       1 ADP1        0.0000
     23 O8        253.6580  -64.1610  110.3470 O.3       1 ADP1        0.0000
     24 C9        255.8560  -63.8980  109.5560 C.3       1 ADP1        0.0000
     25 O9        256.5420  -62.8680  108.8180 O.3       1 ADP1        0.0000
     26 C10       256.4420  -65.2180  109.0850 C.3       1 ADP1        0.0000
     27 O10       256.8920  -65.2430  107.6570 O.3       1 ADP1        0.0000
     28 H1        254.4642  -57.1040  106.8001 H         1 ADP1        0.0000
     29 H2        256.2431  -63.3289  106.2896 H         1 ADP1        0.0000
     30 H3        255.6750  -65.9959  109.2136 H         1 ADP1        0.0000
     31 H4        257.3100  -65.4505  109.7194 H         1 ADP1        0.0000
     32 H5        256.1101  -60.8457  109.1379 H         1 ADP1        0.0000
     33 H6        253.5552  -61.7929  108.4624 H         1 ADP1        0.0000
     34 H7        254.1379  -60.4611  110.2721 H         1 ADP1        0.0000
     35 H8        254.0786  -64.0637  108.3292 H         1 ADP1        0.0000
     36 H9        252.7301  -64.0059  110.2146 H         1 ADP1        0.0000
     37 H10       256.0516  -63.7840  110.6324 H         1 ADP1        0.0000
     38 H11       254.8884  -58.5139  102.5670 H         1 ADP1        0.0000
     39 H12       256.0753  -59.6325  102.6465 H         1 ADP1        0.0000
@<TRIPOS>BOND
     1    1    2 2
     2    1    3 1
     3    1    4 1
     4    1    8 1
     5    5    6 2
     6    5    7 1
     7    5    8 1
     8    5   27 1
     9   26   27 1
    10   24   26 1
    11   24   25 1
    12   22   24 1
    13   19   25 1
    14   22   23 1
    15   20   22 1
    16   20   21 1
    17   19   20 1
    18    9   19 1
    19    9   10 1
    20    9   18 1
    21   10   11 2
    22   11   12 1
    23   12   13 ar
    24   12   18 ar
    25   13   14 1
    26   13   15 ar
    27   15   16 ar
    28   16   17 ar
    29   17   18 ar
    30   26   30 1
    31   26   31 1
    32   24   37 1
    33   22   35 1
    34   23   36 1
    35   20   33 1
    36   21   34 1
    37   19   32 1
    38   10   29 1
    39   14   38 1
    40   14   39 1
    41   16   28 1
