@<TRIPOS>MOLECULE
[[5-(6-aminopurin-9-yl)-3,4-dihydroxy-tetrahydrofuran-2-yl]methoxy-oxido-phosphoryl]
   39    41     1     0     0
SMALL
No Charge or Current Charge


@<TRIPOS>ATOM
      1 P1        193.7880  175.8240   12.4320 p5        1 MOL      1.3672 
      2 O1        193.8840  176.3520   13.7920 o         1 MOL     -0.9552 
      3 O2        193.5660  176.8370   11.3940 o         1 MOL     -0.9552 
      4 O3        194.9790  174.9080   12.1320 o         1 MOL     -0.9552 
      5 P2        191.7480  174.0630   13.5450 p5        1 MOL      1.4929 
      6 O4        190.6110  174.9010   14.0320 o         1 MOL     -0.9474 
      7 O5        191.3570  172.7550   12.9540 o         1 MOL     -0.9474 
      8 O6        192.5320  174.8740   12.4500 os        1 MOL     -0.6346 
      9 O7        192.6420  173.9060   14.8390 os        1 MOL     -0.6579 
     10 C1        193.7680  172.9650   14.8690 c3        1 MOL      0.0558 
     11 C2        193.5940  171.6230   15.6400 c3        1 MOL      0.1065 
     12 O8        192.9230  171.8420   16.8970 os        1 MOL     -0.3548 
     13 C3        192.7510  170.4940   14.9970 c3        1 MOL      0.2022 
     14 O9        193.5610  169.8240   14.0380 oh        1 MOL     -0.6541 
     15 C4        192.3690  169.6590   16.2180 c3        1 MOL      0.0670 
     16 O10       193.4230  168.7490   16.6150 oh        1 MOL     -0.6139 
     17 C5        192.1520  170.7040   17.3120 c3        1 MOL      0.0394 
     18 N1        190.7110  171.1690   17.4450 na        1 MOL     -0.0251 
     19 C6        190.1690  172.2370   16.8080 cc        1 MOL      0.2006 
     20 N2        188.8770  172.4310   17.1080 nd        1 MOL     -0.6073 
     21 C7        188.5960  171.4080   17.9610 ca        1 MOL      0.0515 
     22 C8        187.3770  171.0710   18.6520 ca        1 MOL      0.7009 
     23 N3        186.2600  171.6960   18.5630 nh        1 MOL     -0.9019 
     24 N4        187.4740  169.9350   19.4540 nb        1 MOL     -0.7615 
     25 C9        188.6420  169.1980   19.5950 ca        1 MOL      0.5875 
     26 N5        189.7730  169.5120   18.9820 nb        1 MOL     -0.6997 
     27 C10       189.7160  170.6100   18.1620 ca        1 MOL      0.3053 
     28 H1        194.0070  172.7120   13.8260 h1        1 MOL      0.0679 
     29 H2        194.6200  173.4920   15.3230 h1        1 MOL      0.0679 
     30 H3        194.5990  171.2200   15.8350 h1        1 MOL      0.1174 
     31 H4        191.8480  170.9210   14.5360 h1        1 MOL      0.0615 
     32 H5        193.0600  169.1260   13.6320 ho        1 MOL      0.4376 
     33 H6        191.4310  169.1180   16.0240 h1        1 MOL      0.0972 
     34 H7        193.1430  168.2520   17.3750 ho        1 MOL      0.4186 
     35 H8        192.5100  170.3130   18.2760 h2        1 MOL      0.2007 
     36 H9        190.7220  172.8670   16.1280 h5        1 MOL      0.1553 
     37 H10       185.5740  171.2360   19.1280 hn        1 MOL      0.4115 
     38 H11       186.3780  172.6360   18.8820 hn        1 MOL      0.4115 
     39 H12       188.6270  168.3280   20.2350 h5        1 MOL      0.0473 
@<TRIPOS>BOND
     1    1    2 1   
     2    1    3 1   
     3    1    4 1   
     4    1    8 1   
     5    5    6 1   
     6    5    7 1   
     7    5    8 1   
     8    5    9 1   
     9    9   10 1   
    10   10   11 1   
    11   11   12 1   
    12   11   13 1   
    13   12   17 1   
    14   13   14 1   
    15   13   15 1   
    16   15   16 1   
    17   15   17 1   
    18   17   18 1   
    19   18   19 1   
    20   18   27 1   
    21   19   20 2   
    22   20   21 1   
    23   21   22 ar  
    24   21   27 ar  
    25   22   23 1   
    26   22   24 ar  
    27   24   25 ar  
    28   25   26 ar  
    29   26   27 ar  
    30   10   28 1   
    31   10   29 1   
    32   11   30 1   
    33   13   31 1   
    34   14   32 1   
    35   15   33 1   
    36   16   34 1   
    37   17   35 1   
    38   19   36 1   
    39   23   37 1   
    40   23   38 1   
    41   25   39 1   
@<TRIPOS>SUBSTRUCTURE
     1 MOL         1 TEMP              0 ****  ****    0 ROOT
