@<TRIPOS>MOLECULE
ADP
 42 44 0 0 0
SMALL
GASTEIGER

@<TRIPOS>ATOM
      1 P          44.6690    2.9280   38.5560 P.3     1  LIG1        0.4808
      2 O          46.0210    3.5080   38.3170 O.2     1  LIG1       -0.2271
      3 O          43.7090    3.8120   37.9050 O.3     1  LIG1       -0.3023
      4 O          44.4590    1.4490   38.3820 O.3     1  LIG1       -0.3023
      5 P          43.2300    2.9550   41.1100 P.3     1  LIG1        0.4834
      6 O          41.9750    3.4970   40.5730 O.2     1  LIG1       -0.2269
      7 O          42.9620    1.5010   41.4010 O.3     1  LIG1       -0.3022
      8 O          44.5220    3.2100   40.2120 O.3     1  LIG1       -0.1862
      9 O          43.4620    3.8320   42.4070 O.3     1  LIG1       -0.2837
     10 C          43.7350    5.2460   42.3350 C.3     1  LIG1        0.0879
     11 C          43.0950    5.8100   43.6260 C.3     1  LIG1        0.1134
     12 O          43.7640    5.2610   44.7790 O.3     1  LIG1       -0.3456
     13 C          43.3370    7.3250   43.6170 C.3     1  LIG1        0.1135
     14 O          42.0560    7.9880   43.5600 O.3     1  LIG1       -0.3864
     15 C          43.9460    7.5930   45.0830 C.3     1  LIG1        0.1285
     16 O          43.5540    8.7260   45.8770 O.3     1  LIG1       -0.3847
     17 C          43.6130    6.2750   45.8130 C.3     1  LIG1        0.1667
     18 N          44.3750    5.7810   46.9910 N.ar    1  LIG1       -0.2855
     19 C          45.7110    5.4860   47.0620 C.ar    1  LIG1        0.1004
     20 N          46.2020    5.3790   48.2820 N.ar    1  LIG1       -0.2306
     21 C          45.0670    5.5970   49.0640 C.ar    1  LIG1        0.1473
     22 C          44.8830    5.6230   50.4990 C.ar    1  LIG1        0.1472
     23 N          45.9120    5.4330   51.3250 N.pl3   1  LIG1       -0.3413
     24 N          43.6260    5.8520   50.8960 N.ar    1  LIG1       -0.2188
     25 C          42.5900    6.0760   50.0670 C.ar    1  LIG1        0.1205
     26 N          42.6750    6.0670   48.7350 N.ar    1  LIG1       -0.2159
     27 C          43.9510    5.8210   48.3040 C.ar    1  LIG1        0.1674
     28 H          42.8470    3.4420   38.0570 H       1  LIG1        0.2220
     29 H          43.5970    1.0790   38.5340 H       1  LIG1        0.2220
     30 H          43.7730    1.1500   41.7480 H       1  LIG1        0.2220
     31 H          44.8120    5.5000   42.2060 H       1  LIG1        0.0592
     32 H          43.3850    5.7350   41.3960 H       1  LIG1        0.0592
     33 H          42.0100    5.5560   43.6680 H       1  LIG1        0.0647
     34 H          43.9780    7.6720   42.7730 H       1  LIG1        0.0647
     35 H          42.2050    8.9260   43.5540 H       1  LIG1        0.2100
     36 H          45.0140    7.8790   44.9410 H       1  LIG1        0.0665
     37 H          43.9130    8.8840   46.7420 H       1  LIG1        0.2101
     38 H          42.6210    6.4820   46.2790 H       1  LIG1        0.0866
     39 H          46.3580    5.3410   46.1810 H       1  LIG1        0.1030
     40 H          45.7820    5.4510   52.3360 H       1  LIG1        0.1438
     41 H          46.6390    6.1070   51.0860 H       1  LIG1        0.1438
     42 H          41.6010    6.2810   50.5100 H       1  LIG1        0.1048
@<TRIPOS>BOND
     1     1     2    2
     2     1     3    1
     3     1     4    1
     4     1     8    1
     5     3    28    1
     6     4    29    1
     7     5     6    2
     8     5     7    1
     9     5     8    1
    10     5     9    1
    11     7    30    1
    12     9    10    1
    13    10    11    1
    14    10    31    1
    15    10    32    1
    16    11    12    1
    17    11    13    1
    18    11    33    1
    19    12    17    1
    20    13    14    1
    21    13    15    1
    22    13    34    1
    23    14    35    1
    24    15    16    1
    25    15    17    1
    26    15    36    1
    27    16    37    1
    28    17    18    1
    29    17    38    1
    30    18    19   ar
    31    18    27   ar
    32    19    20   ar
    33    19    39    1
    34    20    21   ar
    35    21    22   ar
    36    21    27   ar
    37    22    23    1
    38    22    24   ar
    39    23    40    1
    40    23    41    1
    41    24    25   ar
    42    25    26   ar
    43    25    42    1
    44    26    27   ar
