@<TRIPOS>MOLECULE
[[5-(6-aminopurin-9-yl)-3,4-dihydroxy-tetrahydrofuran-2-yl]methoxy-oxido-phosphoryl] phosphate
   39    41     0     0     0
SMALL
NO_CHARGES

@<TRIPOS>ATOM
      1 P1        193.7880  175.8240   12.4320 P.3       1 MOL        0.0000
      2 O1        193.8840  176.3520   13.7920 O.2       1 MOL        0.0000
      3 O2        193.5660  176.8370   11.3940 O.3       1 MOL        0.0000
      4 O3        194.9790  174.9080   12.1320 O.3       1 MOL        0.0000
      5 P2        191.7480  174.0630   13.5450 P.3       1 MOL        0.0000
      6 O4        190.6110  174.9010   14.0320 O.3       1 MOL        0.0000
      7 O5        191.3570  172.7550   12.9540 O.2       1 MOL        0.0000
      8 O6        192.5320  174.8740   12.4500 O.3       1 MOL        0.0000
      9 O7        192.6420  173.9060   14.8390 O.3       1 MOL        0.0000
     10 C1        193.7680  172.9650   14.8690 C.3       1 MOL        0.0000
     11 C2        193.5940  171.6230   15.6400 C.3       1 MOL        0.0000
     12 O8        192.9230  171.8420   16.8970 O.3       1 MOL        0.0000
     13 C3        192.7510  170.4940   14.9970 C.3       1 MOL        0.0000
     14 O9        193.5610  169.8240   14.0380 O.3       1 MOL        0.0000
     15 C4        192.3690  169.6590   16.2180 C.3       1 MOL        0.0000
     16 O10       193.4230  168.7490   16.6150 O.3       1 MOL        0.0000
     17 C5        192.1520  170.7040   17.3120 C.3       1 MOL        0.0000
     18 N1        190.7110  171.1690   17.4450 N.pl3     1 MOL        0.0000
     19 C6        190.1690  172.2370   16.8080 C.2       1 MOL        0.0000
     20 N2        188.8770  172.4310   17.1080 N.2       1 MOL        0.0000
     21 C7        188.5960  171.4080   17.9610 C.ar      1 MOL        0.0000
     22 C8        187.3770  171.0710   18.6520 C.ar      1 MOL        0.0000
     23 N3        186.2600  171.6960   18.5630 N.pl3     1 MOL        0.0000
     24 N4        187.4740  169.9350   19.4540 N.ar      1 MOL        0.0000
     25 C9        188.6420  169.1980   19.5950 C.ar      1 MOL        0.0000
     26 N5        189.7730  169.5120   18.9820 N.ar      1 MOL        0.0000
     27 C10       189.7160  170.6100   18.1620 C.ar      1 MOL        0.0000
     28 H1        194.0074  172.7115   13.8257 H         1 MOL        0.0000
     29 H2        194.6200  173.4923   15.3230 H         1 MOL        0.0000
     30 H3        194.5986  171.2197   15.8352 H         1 MOL        0.0000
     31 H4        191.8484  170.9213   14.5358 H         1 MOL        0.0000
     32 H5        193.0602  169.1264   13.6318 H         1 MOL        0.0000
     33 H6        191.4309  169.1182   16.0243 H         1 MOL        0.0000
     34 H7        193.1434  168.2520   17.3748 H         1 MOL        0.0000
     35 H8        192.5097  170.3134   18.2761 H         1 MOL        0.0000
     36 H9        190.7225  172.8674   16.1278 H         1 MOL        0.0000
     37 H10       185.5744  171.2364   19.1275 H         1 MOL        0.0000
     38 H11       186.3781  172.6364   18.8818 H         1 MOL        0.0000
     39 H12       188.6275  168.3279   20.2346 H         1 MOL        0.0000
@<TRIPOS>BOND
     1    1    2 2
     2    1    3 1
     3    1    4 1
     4    1    8 1
     5    5    6 1
     6    5    7 2
     7    5    8 1
     8    5    9 1
     9    9   10 1
    10   10   11 1
    11   11   12 1
    12   11   13 1
    13   12   17 1
    14   13   14 1
    15   13   15 1
    16   15   16 1
    17   15   17 1
    18   17   18 1
    19   18   19 1
    20   18   27 1
    21   19   20 2
    22   20   21 1
    23   21   22 ar
    24   21   27 ar
    25   22   23 1
    26   22   24 ar
    27   24   25 ar
    28   25   26 ar
    29   26   27 ar
    30   10   28 1
    31   10   29 1
    32   11   30 1
    33   13   31 1
    34   14   32 1
    35   15   33 1
    36   16   34 1
    37   17   35 1
    38   19   36 1
    39   23   37 1
    40   23   38 1
    41   25   39 1
